<?xml version="1.0" encoding="UTF-8"?>

<!-- generated on 2024-12-10 15:59:50.860230 by osmWebWizard.py v1_20_0+0002-343658e7c64
<configuration>
    <net-file value="c:\Users\mario\OneDrive\Escritorio\contamination_simulation\2024-12-10-15-59-14\osm.net.xml.gz"/>
    <output-trip-file value="c:\Users\mario\OneDrive\Escritorio\contamination_simulation\2024-12-10-15-59-14\osm.passenger.trips.xml"/>
    <route-file value="c:\Users\mario\OneDrive\Escritorio\contamination_simulation\2024-12-10-15-59-14\osm.passenger.rou.xml"/>
    <prefix value="veh"/>
    <trip-attributes value="departLane=&quot;best&quot;"/>
    <fringe-start-attributes value="departSpeed=&quot;max&quot;"/>
    <vehicle-class value="passenger"/>
    <lanes value="True"/>
    <fringe-factor value="5"/>
    <allow-fringe.min-length value="1000.0"/>
    <via-edge-types value="highway.motorway,highway.motorway_link,highway.trunk_link,highway.primary_link,highway.secondary_link,highway.tertiary_link"/>
    <min-distance value="300.0"/>
    <min-distance.fringe value="10.0"/>
    <remove-loops value="True"/>
    <validate value="True"/>
    <insertion-density value="12.0"/>
</configuration>
-->

<!-- generated on 2024-12-10 15:59:50 by Eclipse SUMO duarouter Version 1.20.0
<configuration xmlns:xsi="http://www.w3.org/2001/XMLSchema-instance" xsi:noNamespaceSchemaLocation="http://sumo.dlr.de/xsd/duarouterConfiguration.xsd">

    <input>
        <net-file value="c:\Users\mario\OneDrive\Escritorio\contamination_simulation\2024-12-10-15-59-14\osm.net.xml.gz"/>
        <route-files value="c:\Users\mario\OneDrive\Escritorio\contamination_simulation\2024-12-10-15-59-14\osm.passenger.trips.xml"/>
    </input>

    <output>
        <output-file value="c:\Users\mario\OneDrive\Escritorio\contamination_simulation\2024-12-10-15-59-14\osm.passenger.trips.xml.tmp"/>
        <alternatives-output value="NUL"/>
        <write-trips value="true"/>
    </output>

    <processing>
        <remove-loops value="true"/>
    </processing>

    <time>
        <begin value="0.0"/>
        <end value="3600.0"/>
    </time>

    <report>
        <no-warnings value="true"/>
        <ignore-errors value="true"/>
        <no-step-log value="true"/>
    </report>

</configuration>
-->

<routes xmlns:xsi="http://www.w3.org/2001/XMLSchema-instance" xsi:noNamespaceSchemaLocation="http://sumo.dlr.de/xsd/routes_file.xsd">
    <vType id="veh_passenger" vClass="passenger"/>
    <trip id="veh0" type="veh_passenger" depart="0.00" departLane="best" from="202156994#0" to="-1115509343#0"/>
    <trip id="veh2" type="veh_passenger" depart="13.72" departLane="best" from="339201177#3" to="301610520#1"/>
    <trip id="veh3" type="veh_passenger" depart="20.58" departLane="best" from="523630409" to="-136571494#0"/>
    <trip id="veh4" type="veh_passenger" depart="27.44" departLane="best" from="1144362247" to="-111833185#1"/>
    <trip id="veh5" type="veh_passenger" depart="34.30" departLane="best" from="-454285423#0" to="168942727#1"/>
    <trip id="veh6" type="veh_passenger" depart="41.16" departLane="best" from="-1121012037#0" to="454285423#4"/>
    <trip id="veh7" type="veh_passenger" depart="48.02" departLane="best" from="-25294728#1" to="195104956#1"/>
    <trip id="veh8" type="veh_passenger" depart="54.88" departLane="best" from="-454285423#3" to="-23121445#0"/>
    <trip id="veh9" type="veh_passenger" depart="61.74" departLane="best" from="4610375#0" to="-1101961674#2"/>
    <trip id="veh10" type="veh_passenger" depart="68.60" departLane="best" from="4610362#11" to="310357283#2"/>
    <trip id="veh11" type="veh_passenger" depart="75.46" departLane="best" departSpeed="max" from="1103300964#0" to="292429062#0"/>
    <trip id="veh12" type="veh_passenger" depart="82.32" departLane="best" from="81112790#1" to="1113726463"/>
    <trip id="veh13" type="veh_passenger" depart="89.18" departLane="best" from="-153698380#2" to="-15977422#1"/>
    <trip id="veh14" type="veh_passenger" depart="96.03" departLane="best" departSpeed="max" from="4612970#0" to="23809678#6"/>
    <trip id="veh15" type="veh_passenger" depart="102.89" departLane="best" from="4610374#1" to="33301683"/>
    <trip id="veh16" type="veh_passenger" depart="109.75" departLane="best" from="188914559" to="82658671#1"/>
    <trip id="veh17" type="veh_passenger" depart="116.61" departLane="best" from="1121011269#1" to="195397561#1"/>
    <trip id="veh18" type="veh_passenger" depart="123.47" departLane="best" from="4611707#1" to="24243107#0"/>
    <trip id="veh19" type="veh_passenger" depart="130.33" departLane="best" from="465376240#0" to="202817674#1"/>
    <trip id="veh20" type="veh_passenger" depart="137.19" departLane="best" from="312357351#1" to="-1133992735#0"/>
    <trip id="veh21" type="veh_passenger" depart="144.05" departLane="best" from="-4610472#0" to="-950222545"/>
    <trip id="veh23" type="veh_passenger" depart="157.77" departLane="best" from="15977422#1" to="-831860725#0"/>
    <trip id="veh24" type="veh_passenger" depart="164.63" departLane="best" from="-51167934#2" to="66311464#1"/>
    <trip id="veh25" type="veh_passenger" depart="171.49" departLane="best" from="251884680#1" to="23852053#2"/>
    <trip id="veh26" type="veh_passenger" depart="178.35" departLane="best" from="-24992424#2" to="33301683"/>
    <trip id="veh27" type="veh_passenger" depart="185.21" departLane="best" from="-24241797#0" to="1126241276#1"/>
    <trip id="veh28" type="veh_passenger" depart="192.07" departLane="best" from="83517332#1" to="25294729#1"/>
    <trip id="veh29" type="veh_passenger" depart="198.93" departLane="best" from="195397541#5" to="305093247#2"/>
    <trip id="veh30" type="veh_passenger" depart="205.79" departLane="best" from="4612969#1" to="4067932"/>
    <trip id="veh31" type="veh_passenger" depart="212.65" departLane="best" from="-4610480#1" to="169999355#1"/>
    <trip id="veh33" type="veh_passenger" depart="226.37" departLane="best" from="437325047#3" to="705182548"/>
    <trip id="veh34" type="veh_passenger" depart="233.23" departLane="best" departSpeed="max" from="4790799" to="1102154080#2"/>
    <trip id="veh35" type="veh_passenger" depart="240.09" departLane="best" from="61583424#1" to="251884680#0"/>
    <trip id="veh36" type="veh_passenger" depart="246.95" departLane="best" from="195401006" to="427637455"/>
    <trip id="veh37" type="veh_passenger" depart="253.81" departLane="best" from="202817674#4" to="534588621#0"/>
    <trip id="veh38" type="veh_passenger" depart="260.67" departLane="best" from="1127595983" to="-4612966"/>
    <trip id="veh39" type="veh_passenger" depart="267.53" departLane="best" from="-902316106#1" to="169195795#1"/>
    <trip id="veh40" type="veh_passenger" depart="274.38" departLane="best" from="136571494#0" to="-1133992736#0"/>
    <trip id="veh41" type="veh_passenger" depart="281.24" departLane="best" from="-4402014#2" to="1151064408#0"/>
    <trip id="veh42" type="veh_passenger" depart="288.10" departLane="best" from="882389497#1" to="19002363#2"/>
    <trip id="veh43" type="veh_passenger" depart="294.96" departLane="best" departSpeed="max" from="830728708#0" to="46140376#1"/>
    <trip id="veh44" type="veh_passenger" depart="301.82" departLane="best" from="-1102369940#1" to="326116286#0"/>
    <trip id="veh46" type="veh_passenger" depart="315.54" departLane="best" from="-51167934#2" to="28016312"/>
    <trip id="veh47" type="veh_passenger" depart="322.40" departLane="best" from="-176043806#0" to="1170522567#0"/>
    <trip id="veh48" type="veh_passenger" depart="329.26" departLane="best" from="1173516145#1" to="783042668"/>
    <trip id="veh49" type="veh_passenger" depart="336.12" departLane="best" departSpeed="max" from="4790799" to="427637455"/>
    <trip id="veh50" type="veh_passenger" depart="342.98" departLane="best" departSpeed="max" from="153698402" to="-389101365#0"/>
    <trip id="veh51" type="veh_passenger" depart="349.84" departLane="best" from="606078065" to="465398529#1"/>
    <trip id="veh52" type="veh_passenger" depart="356.70" departLane="best" from="4612969#2" to="25294729#1"/>
    <trip id="veh53" type="veh_passenger" depart="363.56" departLane="best" departSpeed="max" from="236092221#0" to="25294728#0"/>
    <trip id="veh54" type="veh_passenger" depart="370.42" departLane="best" from="374734389#1" to="194073677#2"/>
    <trip id="veh55" type="veh_passenger" depart="377.28" departLane="best" from="-705182550" to="19002363#3"/>
    <trip id="veh56" type="veh_passenger" depart="384.14" departLane="best" from="-1024034687#0" to="1105526112#1"/>
    <trip id="veh57" type="veh_passenger" depart="391.00" departLane="best" from="-111251382#3" to="66071366#4"/>
    <trip id="veh58" type="veh_passenger" depart="397.86" departLane="best" from="490365295#0" to="-4611694#1"/>
    <trip id="veh59" type="veh_passenger" depart="404.72" departLane="best" departSpeed="max" from="4790799" to="72157174#1"/>
    <trip id="veh60" type="veh_passenger" depart="411.58" departLane="best" from="-1305423286#0" to="153698390#2"/>
    <trip id="veh61" type="veh_passenger" depart="418.44" departLane="best" from="-1198409426#0" to="35269774#2"/>
    <trip id="veh62" type="veh_passenger" depart="425.30" departLane="best" from="380240681#3" to="225400578#2"/>
    <trip id="veh64" type="veh_passenger" depart="439.02" departLane="best" from="-114667396#0" to="4610607#1"/>
    <trip id="veh65" type="veh_passenger" depart="445.88" departLane="best" from="-19002363#3" to="33301683"/>
    <trip id="veh66" type="veh_passenger" depart="452.74" departLane="best" from="339201185" to="1101961674#3"/>
    <trip id="veh67" type="veh_passenger" depart="459.59" departLane="best" from="882389494#1" to="289966281"/>
    <trip id="veh68" type="veh_passenger" depart="466.45" departLane="best" from="1151064408#0" to="171826984#2"/>
    <trip id="veh70" type="veh_passenger" depart="480.17" departLane="best" from="-1102369940#0" to="23013165"/>
    <trip id="veh71" type="veh_passenger" depart="487.03" departLane="best" departSpeed="max" from="4610524#1" to="-4612966"/>
    <trip id="veh72" type="veh_passenger" depart="493.89" departLane="best" from="1198409426#2" to="-24993933#0"/>
    <trip id="veh73" type="veh_passenger" depart="500.75" departLane="best" from="-4610480#1" to="541763975"/>
    <trip id="veh74" type="veh_passenger" depart="507.61" departLane="best" from="461526152#1" to="1179820019#0"/>
    <trip id="veh76" type="veh_passenger" depart="521.33" departLane="best" from="-4402014#0" to="-23121445#4"/>
    <trip id="veh77" type="veh_passenger" depart="528.19" departLane="best" from="1267489732#0" to="43231842#0"/>
    <trip id="veh78" type="veh_passenger" depart="535.05" departLane="best" from="155186522#1" to="1155226001#1"/>
    <trip id="veh79" type="veh_passenger" depart="541.91" departLane="best" from="-114667396#1" to="1277784875#0"/>
    <trip id="veh80" type="veh_passenger" depart="548.77" departLane="best" from="831694400#1" to="-168940071#2"/>
    <trip id="veh81" type="veh_passenger" depart="555.63" departLane="best" from="4611726#1" to="-1115509343#0"/>
    <trip id="veh82" type="veh_passenger" depart="562.49" departLane="best" from="465376240#0" to="-534588621#1"/>
    <trip id="veh83" type="veh_passenger" depart="569.35" departLane="best" departSpeed="max" from="-312176585" to="120675240#3"/>
    <trip id="veh84" type="veh_passenger" depart="576.21" departLane="best" from="1144362247" to="-831860725#0"/>
    <trip id="veh85" type="veh_passenger" depart="583.07" departLane="best" from="-465376254#2" to="61584187#1"/>
    <trip id="veh86" type="veh_passenger" depart="589.93" departLane="best" from="-1155226001#1" to="46140376#1"/>
    <trip id="veh87" type="veh_passenger" depart="596.79" departLane="best" from="194073677#4" to="-114667396#2"/>
    <trip id="veh88" type="veh_passenger" depart="603.65" departLane="best" from="950222545" to="4611698"/>
    <trip id="veh89" type="veh_passenger" depart="610.51" departLane="best" from="82659290" to="6227658#2"/>
    <trip id="veh90" type="veh_passenger" depart="617.37" departLane="best" from="4612973#0" to="-31313667#0"/>
    <trip id="veh91" type="veh_passenger" depart="624.23" departLane="best" from="1323456346#1" to="-4611693#3"/>
    <trip id="veh92" type="veh_passenger" depart="631.09" departLane="best" from="1127597264#1" to="1151064410"/>
    <trip id="veh93" type="veh_passenger" depart="637.94" departLane="best" from="1121011269#2" to="831694400#1"/>
    <trip id="veh95" type="veh_passenger" depart="651.66" departLane="best" from="-1179820019#0" to="1151064408#1"/>
    <trip id="veh96" type="veh_passenger" depart="658.52" departLane="best" from="81112790#1" to="930343901#1"/>
    <trip id="veh98" type="veh_passenger" depart="672.24" departLane="best" departSpeed="max" from="-23813206" to="100405009#3"/>
    <trip id="veh99" type="veh_passenger" depart="679.10" departLane="best" from="82659290" to="-202817674#5"/>
    <trip id="veh100" type="veh_passenger" depart="685.96" departLane="best" from="19002403#2" to="342968607#1"/>
    <trip id="veh101" type="veh_passenger" depart="692.82" departLane="best" from="-1152640374#2" to="225400578#4"/>
    <trip id="veh102" type="veh_passenger" depart="699.68" departLane="best" from="155186522#1" to="4612973#0"/>
    <trip id="veh103" type="veh_passenger" depart="706.54" departLane="best" departSpeed="max" from="-23813206" to="81112790#0"/>
    <trip id="veh105" type="veh_passenger" depart="720.26" departLane="best" from="23121445#4" to="301610520#1"/>
    <trip id="veh106" type="veh_passenger" depart="727.12" departLane="best" from="1195359141" to="-195397541#2"/>
    <trip id="veh107" type="veh_passenger" depart="733.98" departLane="best" from="23121445#4" to="24243107#1"/>
    <trip id="veh108" type="veh_passenger" depart="740.84" departLane="best" from="-1133992734#1" to="225400578#4"/>
    <trip id="veh109" type="veh_passenger" depart="747.70" departLane="best" from="169195795#1" to="66311464#1"/>
    <trip id="veh110" type="veh_passenger" depart="754.56" departLane="best" from="370359204#3" to="316092515"/>
    <trip id="veh111" type="veh_passenger" depart="761.42" departLane="best" from="-4611696#4" to="1133457735#1"/>
    <trip id="veh112" type="veh_passenger" depart="768.28" departLane="best" from="301167584#0" to="1024034687#1"/>
    <trip id="veh115" type="veh_passenger" depart="788.86" departLane="best" from="-507023458#1" to="66311464#1"/>
    <trip id="veh116" type="veh_passenger" depart="795.72" departLane="best" from="492340367#1" to="4790825#1"/>
    <trip id="veh117" type="veh_passenger" depart="802.58" departLane="best" from="1119837993" to="292429062#3"/>
    <trip id="veh118" type="veh_passenger" depart="809.44" departLane="best" from="4612961#1" to="312357351#0"/>
    <trip id="veh119" type="veh_passenger" depart="816.30" departLane="best" from="236092221#1" to="-84960597#1"/>
    <trip id="veh120" type="veh_passenger" depart="823.15" departLane="best" from="284493291#0" to="1101961674#4"/>
    <trip id="veh121" type="veh_passenger" depart="830.01" departLane="best" from="4610524#1" to="1024034687#0"/>
    <trip id="veh122" type="veh_passenger" depart="836.87" departLane="best" from="289967595#0" to="68647306#2"/>
    <trip id="veh123" type="veh_passenger" depart="843.73" departLane="best" departSpeed="max" from="-202156991" to="-194962375#1"/>
    <trip id="veh124" type="veh_passenger" depart="850.59" departLane="best" from="168940071#8" to="195397561#4"/>
    <trip id="veh125" type="veh_passenger" depart="857.45" departLane="best" from="534588621#1" to="23809678#8"/>
    <trip id="veh126" type="veh_passenger" depart="864.31" departLane="best" departSpeed="max" from="318282850#0" to="-4610374#3"/>
    <trip id="veh127" type="veh_passenger" depart="871.17" departLane="best" from="246052428" to="705182551"/>
    <trip id="veh128" type="veh_passenger" depart="878.03" departLane="best" departSpeed="max" from="4612970#0" to="155186522#1"/>
    <trip id="veh129" type="veh_passenger" depart="884.89" departLane="best" from="-114667396#1" to="82658671#2"/>
    <trip id="veh130" type="veh_passenger" depart="891.75" departLane="best" from="-24913267#3" to="-474362271"/>
    <trip id="veh131" type="veh_passenger" depart="898.61" departLane="best" from="339201219" to="195397561#1"/>
    <trip id="veh132" type="veh_passenger" depart="905.47" departLane="best" from="1151064386#0" to="1102154080#1"/>
    <trip id="veh133" type="veh_passenger" depart="912.33" departLane="best" from="1218225317#3" to="156364556#1"/>
    <trip id="veh134" type="veh_passenger" depart="919.19" departLane="best" from="54781811" to="195104956#1"/>
    <trip id="veh135" type="veh_passenger" depart="926.05" departLane="best" from="4612961#1" to="225400578#3"/>
    <trip id="veh136" type="veh_passenger" depart="932.91" departLane="best" from="23121445#5" to="225400578#1"/>
    <trip id="veh137" type="veh_passenger" depart="939.77" departLane="best" departSpeed="max" from="-930343901#2" to="-534588621#1"/>
    <trip id="veh138" type="veh_passenger" depart="946.63" departLane="best" from="4412868#2" to="46140376#1"/>
    <trip id="veh139" type="veh_passenger" depart="953.49" departLane="best" from="541763974" to="4610524#0"/>
    <trip id="veh140" type="veh_passenger" depart="960.35" departLane="best" from="43231842#0" to="-492340367#0"/>
    <trip id="veh142" type="veh_passenger" depart="974.07" departLane="best" departSpeed="max" from="-23813206" to="66071373#1"/>
    <trip id="veh143" type="veh_passenger" depart="980.93" departLane="best" from="465376255#0" to="82659290"/>
    <trip id="veh144" type="veh_passenger" depart="987.79" departLane="best" from="4610476#2" to="4790825#1"/>
    <trip id="veh145" type="veh_passenger" depart="994.65" departLane="best" from="169999355#1" to="-339201185"/>
    <trip id="veh146" type="veh_passenger" depart="1001.51" departLane="best" from="-1100824590#0" to="66071379#1"/>
    <trip id="veh147" type="veh_passenger" depart="1008.36" departLane="best" from="4588220#0" to="461526152#1"/>
    <trip id="veh148" type="veh_passenger" depart="1015.22" departLane="best" from="4610476#2" to="61583423#1"/>
    <trip id="veh149" type="veh_passenger" depart="1022.08" departLane="best" from="437325048#0" to="176043806#0"/>
    <trip id="veh150" type="veh_passenger" depart="1028.94" departLane="best" departSpeed="max" from="4790799" to="4613295#3"/>
    <trip id="veh151" type="veh_passenger" depart="1035.80" departLane="best" from="-4588217#1" to="4610362#0"/>
    <trip id="veh152" type="veh_passenger" depart="1042.66" departLane="best" from="-1198409426#2" to="1079495669#1"/>
    <trip id="veh153" type="veh_passenger" depart="1049.52" departLane="best" from="4412868#1" to="-4612970#0"/>
    <trip id="veh154" type="veh_passenger" depart="1056.38" departLane="best" from="-1119854969#0" to="4402014#1"/>
    <trip id="veh155" type="veh_passenger" depart="1063.24" departLane="best" from="82658674#1" to="-831860725#0"/>
    <trip id="veh156" type="veh_passenger" depart="1070.10" departLane="best" from="-24992424#2" to="1133992734#1"/>
    <trip id="veh157" type="veh_passenger" depart="1076.96" departLane="best" from="831659093#0" to="190447768#1"/>
    <trip id="veh158" type="veh_passenger" depart="1083.82" departLane="best" from="750204886#0" to="-194962375#0"/>
    <trip id="veh159" type="veh_passenger" depart="1090.68" departLane="best" departSpeed="max" from="830728708#0" to="-389101365#0"/>
    <trip id="veh160" type="veh_passenger" depart="1097.54" departLane="best" from="82654059#0" to="-750204886#0"/>
    <trip id="veh161" type="veh_passenger" depart="1104.40" departLane="best" from="-168942727#2" to="-1126465703#0"/>
    <trip id="veh162" type="veh_passenger" depart="1111.26" departLane="best" from="318282850#2" to="1102154080#1"/>
    <trip id="veh163" type="veh_passenger" depart="1118.12" departLane="best" departSpeed="max" from="236092221#0" to="169660686#1"/>
    <trip id="veh164" type="veh_passenger" depart="1124.98" departLane="best" from="1123105979#1" to="4773465#2"/>
    <trip id="veh165" type="veh_passenger" depart="1131.84" departLane="best" from="-474362271" to="312357351#3"/>
    <trip id="veh166" type="veh_passenger" depart="1138.70" departLane="best" from="-1040930907#3" to="6227658#1"/>
    <trip id="veh169" type="veh_passenger" depart="1159.28" departLane="best" from="1116360926#1" to="-1173516145#1"/>
    <trip id="veh170" type="veh_passenger" depart="1166.14" departLane="best" from="289967595#0" to="1112054538"/>
    <trip id="veh172" type="veh_passenger" depart="1179.86" departLane="best" departSpeed="max" from="318282850#0" to="1024034687#1"/>
    <trip id="veh173" type="veh_passenger" depart="1186.71" departLane="best" departSpeed="max" from="-930343901#2" to="114667396#2"/>
    <trip id="veh174" type="veh_passenger" depart="1193.57" departLane="best" from="4611726#1" to="100405009#3"/>
    <trip id="veh175" type="veh_passenger" depart="1200.43" departLane="best" from="195397541#0" to="1151064407#1"/>
    <trip id="veh176" type="veh_passenger" depart="1207.29" departLane="best" from="755551646#1" to="301610520#1"/>
    <trip id="veh177" type="veh_passenger" depart="1214.15" departLane="best" from="54698846#1" to="24242882#1"/>
    <trip id="veh178" type="veh_passenger" depart="1221.01" departLane="best" from="84960597#1" to="-195397541#0"/>
    <trip id="veh179" type="veh_passenger" depart="1227.87" departLane="best" from="-1024034687#0" to="902316106#1"/>
    <trip id="veh180" type="veh_passenger" depart="1234.73" departLane="best" from="606078072#1" to="1267489732#2"/>
    <trip id="veh181" type="veh_passenger" depart="1241.59" departLane="best" from="-1155226001#0" to="4611693#2"/>
    <trip id="veh182" type="veh_passenger" depart="1248.45" departLane="best" from="1267489732#1" to="541763974"/>
    <trip id="veh183" type="veh_passenger" depart="1255.31" departLane="best" departSpeed="max" from="66071379#1" to="171423001#3"/>
    <trip id="veh184" type="veh_passenger" depart="1262.17" departLane="best" departSpeed="max" from="243854725#0" to="1113401735#1"/>
    <trip id="veh185" type="veh_passenger" depart="1269.03" departLane="best" from="-4610607#1" to="344594961#1"/>
    <trip id="veh187" type="veh_passenger" depart="1282.75" departLane="best" from="-339201177#3" to="1114798610#1"/>
    <trip id="veh188" type="veh_passenger" depart="1289.61" departLane="best" from="1175552853#2" to="1320422402"/>
    <trip id="veh189" type="veh_passenger" depart="1296.47" departLane="best" from="4612973#1" to="1198409426#0"/>
    <trip id="veh190" type="veh_passenger" depart="1303.33" departLane="best" departSpeed="max" from="1133761791#1" to="24992424#3"/>
    <trip id="veh191" type="veh_passenger" depart="1310.19" departLane="best" from="316746323#2" to="310176513#3"/>
    <trip id="veh192" type="veh_passenger" depart="1317.05" departLane="best" from="-153698390#1" to="51167934#2"/>
    <trip id="veh193" type="veh_passenger" depart="1323.91" departLane="best" from="284493291#0" to="1101961674#1"/>
    <trip id="veh195" type="veh_passenger" depart="1337.63" departLane="best" from="-168940071#8" to="1152640374#1"/>
    <trip id="veh197" type="veh_passenger" depart="1351.35" departLane="best" from="168942727#1" to="114667396#2"/>
    <trip id="veh199" type="veh_passenger" depart="1365.07" departLane="best" from="1179820253#1" to="4403559#3"/>
    <trip id="veh200" type="veh_passenger" depart="1371.92" departLane="best" from="-292429063#0" to="-84960597#2"/>
    <trip id="veh201" type="veh_passenger" depart="1378.78" departLane="best" from="23121445#5" to="-750204886#0"/>
    <trip id="veh202" type="veh_passenger" depart="1385.64" departLane="best" from="-51167934#5" to="24241790#2"/>
    <trip id="veh203" type="veh_passenger" depart="1392.50" departLane="best" departSpeed="max" from="318282850#0" to="168940071#8"/>
    <trip id="veh204" type="veh_passenger" depart="1399.36" departLane="best" from="4611726#1" to="195105329"/>
    <trip id="veh205" type="veh_passenger" depart="1406.22" departLane="best" from="54048862#2" to="340498976#9"/>
    <trip id="veh207" type="veh_passenger" depart="1419.94" departLane="best" from="-4612981#1" to="25294729#1"/>
    <trip id="veh208" type="veh_passenger" depart="1426.80" departLane="best" from="380240681#3" to="72157174#1"/>
    <trip id="veh209" type="veh_passenger" depart="1433.66" departLane="best" from="24243092#1" to="8008608"/>
    <trip id="veh211" type="veh_passenger" depart="1447.38" departLane="best" from="534588621#1" to="1105526112#1"/>
    <trip id="veh212" type="veh_passenger" depart="1454.24" departLane="best" from="-19002363#5" to="23812656#3"/>
    <trip id="veh213" type="veh_passenger" depart="1461.10" departLane="best" departSpeed="max" from="4610524#1" to="30721662#1"/>
    <trip id="veh214" type="veh_passenger" depart="1467.96" departLane="best" from="312357351#3" to="-1171295120#0"/>
    <trip id="veh215" type="veh_passenger" depart="1474.82" departLane="best" departSpeed="max" from="1133761791#1" to="4610524#0"/>
    <trip id="veh216" type="veh_passenger" depart="1481.68" departLane="best" from="1133992735#0" to="541763975"/>
    <trip id="veh217" type="veh_passenger" depart="1488.54" departLane="best" from="202817674#3" to="310176513#2"/>
    <trip id="veh218" type="veh_passenger" depart="1495.40" departLane="best" from="46140376#1" to="-195397539"/>
    <trip id="veh219" type="veh_passenger" depart="1502.26" departLane="best" from="112128419#1" to="1101961674#2"/>
    <trip id="veh220" type="veh_passenger" depart="1509.12" departLane="best" from="-1110526068" to="344594966"/>
    <trip id="veh221" type="veh_passenger" depart="1515.98" departLane="best" from="1133992734#1" to="342968607#1"/>
    <trip id="veh222" type="veh_passenger" depart="1522.84" departLane="best" from="194069450#0" to="23809678#6"/>
    <trip id="veh223" type="veh_passenger" depart="1529.70" departLane="best" from="-454285423#3" to="-4612966"/>
    <trip id="veh224" type="veh_passenger" depart="1536.56" departLane="best" from="-1151064407#0" to="-111833185#0"/>
    <trip id="veh225" type="veh_passenger" depart="1543.42" departLane="best" from="-1101961737" to="301610520#1"/>
    <trip id="veh226" type="veh_passenger" depart="1550.27" departLane="best" from="1133457733" to="-310177222#1"/>
    <trip id="veh227" type="veh_passenger" depart="1557.13" departLane="best" from="-1249845308" to="225400578#1"/>
    <trip id="veh228" type="veh_passenger" depart="1563.99" departLane="best" from="23852053#2" to="-111833185#0"/>
    <trip id="veh230" type="veh_passenger" depart="1577.71" departLane="best" from="-1121012037#1" to="-1171295120#0"/>
    <trip id="veh231" type="veh_passenger" depart="1584.57" departLane="best" from="202817674#3" to="1267489731#2"/>
    <trip id="veh232" type="veh_passenger" depart="1591.43" departLane="best" from="-1151064397#3" to="1126241276#1"/>
    <trip id="veh233" type="veh_passenger" depart="1598.29" departLane="best" from="437325047#6" to="1105574291#2"/>
    <trip id="veh234" type="veh_passenger" depart="1605.15" departLane="best" from="374734389#1" to="1126241276#1"/>
    <trip id="veh235" type="veh_passenger" depart="1612.01" departLane="best" from="344594961#0" to="-4611694#1"/>
    <trip id="veh236" type="veh_passenger" depart="1618.87" departLane="best" from="-111251382#3" to="194073677#2"/>
    <trip id="veh237" type="veh_passenger" depart="1625.73" departLane="best" from="950222545" to="1119935543#0"/>
    <trip id="veh238" type="veh_passenger" depart="1632.59" departLane="best" from="-25294728#1" to="42103020#2"/>
    <trip id="veh239" type="veh_passenger" depart="1639.45" departLane="best" from="28251222#0" to="344594966"/>
    <trip id="veh240" type="veh_passenger" depart="1646.31" departLane="best" departSpeed="max" from="-7917219#0" to="454285423#5"/>
    <trip id="veh241" type="veh_passenger" depart="1653.17" departLane="best" from="1114798610#0" to="-24993933#2"/>
    <trip id="veh243" type="veh_passenger" depart="1666.89" departLane="best" from="195401013#2" to="-4612966"/>
    <trip id="veh244" type="veh_passenger" depart="1673.75" departLane="best" from="310357283#2" to="370359204#1"/>
    <trip id="veh245" type="veh_passenger" depart="1680.61" departLane="best" from="-24913267#2" to="23851930"/>
    <trip id="veh246" type="veh_passenger" depart="1687.47" departLane="best" from="169195795#1" to="-194069450#1"/>
    <trip id="veh247" type="veh_passenger" depart="1694.33" departLane="best" from="-4611693#1" to="82652816"/>
    <trip id="veh248" type="veh_passenger" depart="1701.19" departLane="best" from="-950222545" to="301610520#1"/>
    <trip id="veh249" type="veh_passenger" depart="1708.05" departLane="best" from="316092515" to="120675240#3"/>
    <trip id="veh250" type="veh_passenger" depart="1714.91" departLane="best" from="30721660#4" to="24992424#0"/>
    <trip id="veh251" type="veh_passenger" depart="1721.77" departLane="best" from="168940071#1" to="380240681#0"/>
    <trip id="veh252" type="veh_passenger" depart="1728.63" departLane="best" from="4612973#2" to="23809678#1"/>
    <trip id="veh253" type="veh_passenger" depart="1735.48" departLane="best" from="-195104956#0" to="831694400#0"/>
    <trip id="veh254" type="veh_passenger" depart="1742.34" departLane="best" from="43231842#3" to="1119838636#1"/>
    <trip id="veh255" type="veh_passenger" depart="1749.20" departLane="best" from="156364570#2" to="1116360926#1"/>
    <trip id="veh256" type="veh_passenger" depart="1756.06" departLane="best" from="4612973#1" to="4610476#2"/>
    <trip id="veh257" type="veh_passenger" depart="1762.92" departLane="best" from="-168940071#6" to="81112790#0"/>
    <trip id="veh258" type="veh_passenger" depart="1769.78" departLane="best" from="246052428" to="4610524#1"/>
    <trip id="veh259" type="veh_passenger" depart="1776.64" departLane="best" from="312357351#3" to="1149417521#1"/>